/*--------------------------------*- C++ -*----------------------------------*\
| =========                 |                                                 |
| \\      /  F ield         | OpenFOAM: The Open Source CFD Toolbox           |
|  \\    /   O peration     | Version:  1.7.1                                 |
|   \\  /    A nd           | Web:      www.OpenFOAM.com                      |
|    \\/     M anipulation  |                                                 |
\*---------------------------------------------------------------------------*/
FoamFile
{
    version     2.0;
    format      ascii;
    class       dictionary;
    object      blockMeshDict;
}
// * * * * * * * * * * * * * * * * * * * * * * * * * * * * * * * * * * * * * //

convertToMeters 0.001;

vertices
(
  (0.999048221581857798 0 0.0436193873653360001) //0
	(0.999048221581857798 10 0.0436193873653360001) //1
	(0.999048221581857798 10 -0.0436193873653360001) //2
	(0.999048221581857798 0 -0.0436193873653360001) //3
	(0 0 0) //4
	(0 10 0) //5
        (2.99714466474557339 0 0.130858162096008)//6
        (2.99714466474557339 10 0.130858162096008)//7
        (2.99714466474557339 10 -0.130858162096008)//8
        (2.99714466474557339 0 -0.130858162096008)//9
);

blocks
(
	hex (0 1 2 3 4 5 5 4) (200 1 20) simpleGrading (1 1 1)
        hex (6 7 8 9 0 1 2 3) (200 1 40) simpleGrading (1 1 1)
        
);

edges
(
);

patches
(
	empty axis
	(
		(4 5 5 4)
	)
	
        wedge front 
	(
         	(0 1 5 4)
                (6 7 1 0)
	)
	
        wedge back
	(
		(2 3 4 5)
                (8 9 3 2)
	)

	patch top_water
	(
		(1 2 5 5)
	)

        wall top_capillary
	(
		(7 8 2 1)
	)

  	patch bottom
	(
		(4 3 0 4)
                (0 3 9 6)
	)
	
        patch out
	(
		(9 8 7 6)
	)
); 

mergePatchPairs
(
);
// ************************************************************************* //
