
FoamFile
{
    version         2.0;
    format          ascii;

    root            "";
    case            "waterdrop";
    instance        "system";
    local           "";

    class           dictionary;
    object          funkySetFieldsDict;
}

expressions
(
  alpha
	{
		field alpha1;
		keepPatches true;
                expression "1"  ;
                condition "(pos().z*pos().z + pos().x*pos().x + (pos().y-0.01)*(pos().y-0.01) <= 0.001*0.001)";
                
                
	}
	
);
